data_ZnO
_audit_creation_date              2022-07-03
_audit_creation_method            'Materials Studio'
_symmetry_space_group_name_H-M    'P1'
_symmetry_Int_Tables_number       1
_symmetry_cell_setting            triclinic
loop_
_symmetry_equiv_pos_as_xyz
  x,y,z
_cell_length_a                    6.6755
_cell_length_b                    6.6755
_cell_length_c                    10.7127
_cell_angle_alpha                 90.0015
_cell_angle_beta                  89.9985
_cell_angle_gamma                 120.0188
loop_
_atom_site_label
_atom_site_type_symbol
_atom_site_fract_x
_atom_site_fract_y
_atom_site_fract_z
_atom_site_U_iso_or_equiv
_atom_site_adp_type
_atom_site_occupancy
Zn1    Zn    0.16172   0.32344  -0.01088   0.00000  Uiso   1.00
O2     O     0.15200   0.30371   0.18109   0.00000  Uiso   1.00
Zn3    Zn    0.33644   0.16813   0.25301   0.00000  Uiso   1.00
O4     O     0.33109   0.16564   0.44183   0.00000  Uiso   1.00
Zn5    Zn    0.66666   0.33334  -0.00034   0.00000  Uiso   1.00
O6     O     0.66677   0.33323   0.18994   0.00000  Uiso   1.00
Zn7    Zn    0.83189   0.16811   0.25297   0.00000  Uiso   1.00
O8     O     0.83437   0.16563   0.44178   0.00000  Uiso   1.00
Zn9    Zn    0.16171   0.83829  -0.01093   0.00000  Uiso   1.00
O10    O     0.15184   0.84816   0.18105   0.00000  Uiso   1.00
Ce11   Ce    0.33323   0.66677   0.24648   0.00000  Uiso   1.00
O12    O     0.33329   0.66671   0.45840   0.00000  Uiso   1.00
Zn13   Zn    0.67656   0.83828  -0.01088   0.00000  Uiso   1.00
O14    O     0.69629   0.84800   0.18109   0.00000  Uiso   1.00
Zn15   Zn    0.83187   0.66356   0.25301   0.00000  Uiso   1.00
O16    O     0.83436   0.66891   0.44183   0.00000  Uiso   1.00
Zn17   Zn    0.16266   0.32545   0.51017   0.00000  Uiso   1.00
O18    O     0.16692   0.33379   0.69646   0.00000  Uiso   1.00
Zn19   Zn    0.33735   0.16865   0.74903   0.00000  Uiso   1.00
O20    O     0.33738   0.16875   0.93749   0.00000  Uiso   1.00
Zn21   Zn    0.66665   0.33335   0.49995   0.00000  Uiso   1.00
O22    O     0.66669   0.33331   0.68820   0.00000  Uiso   1.00
Zn23   Zn    0.83132   0.16868   0.74904   0.00000  Uiso   1.00
O24    O     0.83128   0.16872   0.93752   0.00000  Uiso   1.00
Zn25   Zn    0.16268   0.83732   0.51016   0.00000  Uiso   1.00
O26    O     0.16695   0.83305   0.69646   0.00000  Uiso   1.00
Zn27   Zn    0.33335   0.66665   0.75452   0.00000  Uiso   1.00
O28    O     0.33332   0.66668   0.94921   0.00000  Uiso   1.00
Zn29   Zn    0.67455   0.83734   0.51017   0.00000  Uiso   1.00
O30    O     0.66621   0.83308   0.69646   0.00000  Uiso   1.00
Zn31   Zn    0.83135   0.66265   0.74903   0.00000  Uiso   1.00
O32    O     0.83125   0.66262   0.93749   0.00000  Uiso   1.00
loop_
_geom_bond_atom_site_label_1
_geom_bond_atom_site_label_2
_geom_bond_distance
_geom_bond_site_symmetry_2
_ccdc_geom_bond_type
Zn1    O2      2.060   .     S
Zn1    O28     2.029   1_554 S
Zn1    O24     1.990   1_454 S
Zn1    O20     1.990   1_554 S
O2     Ce11    2.212   .     S
O2     Zn7     2.011   1_455 S
O2     Zn3     2.011   .     S
Zn3    O4      2.023   .     S
Zn3    O10     2.010   1_545 S
Zn3    O6      2.025   .     S
O4     Zn25    2.034   1_545 S
O4     Zn21    2.037   .     S
O4     Zn17    2.034   .     S
Zn5    O6      2.038   .     S
Zn5    O32     2.016   1_554 S
Zn5    O20     2.016   1_554 S
Zn5    O24     2.017   1_554 S
O6     Zn15    2.025   .     S
O6     Zn7     2.025   .     S
Zn7    O8      2.023   .     S
Zn7    O14     2.011   1_545 S
Zn7    O2      2.011   1_655 S
O8     Zn29    2.034   1_545 S
O8     Zn17    2.034   1_655 S
O8     Zn21    2.037   .     S
Zn9    O10     2.060   .     S
Zn9    O20     1.990   1_564 S
Zn9    O32     1.990   1_454 S
Zn9    O28     2.030   1_554 S
O10    Zn3     2.010   1_565 S
O10    Zn15    2.010   1_455 S
O10    Ce11    2.211   .     S
Ce11   O12     2.270   .     S
Ce11   O14     2.212   .     S
O12    Zn17    2.049   .     S
O12    Zn29    2.049   .     S
O12    Zn25    2.049   .     S
Zn13   O14     2.060   .     S
Zn13   O24     1.990   1_564 S
Zn13   O28     2.029   1_554 S
Zn13   O32     1.990   1_554 S
O14    Zn7     2.011   1_565 S
O14    Zn15    2.011   .     S
Zn15   O16     2.023   .     S
Zn15   O10     2.010   1_655 S
O16    Zn21    2.037   .     S
O16    Zn25    2.034   1_655 S
O16    Zn29    2.034   .     S
Zn17   O18     1.996   .     S
Zn17   O8      2.034   1_455 S
O18    Zn27    2.022   .     S
O18    Zn23    2.020   1_455 S
O18    Zn19    2.020   .     S
Zn19   O20     2.019   .     S
Zn19   O26     2.020   1_545 S
Zn19   O22     2.012   .     S
O20    Zn9     1.990   1_546 S
O20    Zn5     2.016   1_556 S
O20    Zn1     1.990   1_556 S
Zn21   O22     2.017   .     S
O22    Zn31    2.012   .     S
O22    Zn23    2.012   .     S
Zn23   O24     2.019   .     S
Zn23   O30     2.020   1_545 S
Zn23   O18     2.020   1_655 S
O24    Zn13    1.990   1_546 S
O24    Zn1     1.990   1_656 S
O24    Zn5     2.017   1_556 S
Zn25   O26     1.996   .     S
Zn25   O4      2.034   1_565 S
Zn25   O16     2.034   1_455 S
O26    Zn19    2.020   1_565 S
O26    Zn31    2.020   1_455 S
O26    Zn27    2.022   .     S
Zn27   O28     2.086   .     S
Zn27   O30     2.022   .     S
O28    Zn1     2.029   1_556 S
O28    Zn13    2.029   1_556 S
O28    Zn9     2.030   1_556 S
Zn29   O30     1.996   .     S
Zn29   O8      2.034   1_565 S
O30    Zn23    2.020   1_565 S
O30    Zn31    2.020   .     S
Zn31   O32     2.019   .     S
Zn31   O26     2.020   1_655 S
O32    Zn5     2.016   1_556 S
O32    Zn9     1.990   1_656 S
O32    Zn13    1.990   1_556 S
