data_ZnO
_audit_creation_date              2022-07-03
_audit_creation_method            'Materials Studio'
_symmetry_space_group_name_H-M    'P1'
_symmetry_Int_Tables_number       1
_symmetry_cell_setting            triclinic
loop_
_symmetry_equiv_pos_as_xyz
  x,y,z
_cell_length_a                    6.6427
_cell_length_b                    6.6420
_cell_length_c                    10.7138
_cell_angle_alpha                 89.9937
_cell_angle_beta                  89.9925
_cell_angle_gamma                 119.9706
loop_
_atom_site_label
_atom_site_type_symbol
_atom_site_fract_x
_atom_site_fract_y
_atom_site_fract_z
_atom_site_U_iso_or_equiv
_atom_site_adp_type
_atom_site_occupancy
Zn1    Zn    0.16333   0.32698  -0.00739   0.00000  Uiso   1.00
O2     O     0.15319   0.30686   0.18111   0.00000  Uiso   1.00
Zn3    Zn    0.33251   0.16593   0.25081   0.00000  Uiso   1.00
O4     O     0.33151   0.16535   0.44034   0.00000  Uiso   1.00
Zn5    Zn    0.66656   0.33339   0.00091   0.00000  Uiso   1.00
O6     O     0.66609   0.33368   0.19099   0.00000  Uiso   1.00
Zn7    Zn    0.83305   0.16716   0.25126   0.00000  Uiso   1.00
O8     O     0.83428   0.16577   0.44068   0.00000  Uiso   1.00
Zn9    Zn    0.16323   0.83654  -0.00795   0.00000  Uiso   1.00
O10    O     0.15347   0.84603   0.18078   0.00000  Uiso   1.00
Eu11   Eu    0.33378   0.66636   0.25267   0.00000  Uiso   1.00
O12    O     0.33383   0.66646   0.46263   0.00000  Uiso   1.00
Zn13   Zn    0.67294   0.83671  -0.00731   0.00000  Uiso   1.00
O14    O     0.69333   0.84727   0.18116   0.00000  Uiso   1.00
Zn15   Zn    0.83390   0.66730   0.25088   0.00000  Uiso   1.00
O16    O     0.83481   0.66848   0.44039   0.00000  Uiso   1.00
Zn17   Zn    0.16313   0.32581   0.50884   0.00000  Uiso   1.00
O18    O     0.16579   0.33190   0.69524   0.00000  Uiso   1.00
Zn19   Zn    0.33716   0.16861   0.75035   0.00000  Uiso   1.00
O20    O     0.33729   0.16882   0.93780   0.00000  Uiso   1.00
Zn21   Zn    0.66651   0.33339   0.49912   0.00000  Uiso   1.00
O22    O     0.66653   0.33339   0.68744   0.00000  Uiso   1.00
Zn23   Zn    0.83141   0.16861   0.75048   0.00000  Uiso   1.00
O24    O     0.83134   0.16879   0.93789   0.00000  Uiso   1.00
Zn25   Zn    0.16352   0.83657   0.50888   0.00000  Uiso   1.00
O26    O     0.16589   0.83400   0.69533   0.00000  Uiso   1.00
Zn27   Zn    0.33346   0.66656   0.75177   0.00000  Uiso   1.00
O28    O     0.33337   0.66668   0.94340   0.00000  Uiso   1.00
Zn29   Zn    0.67435   0.83688   0.50887   0.00000  Uiso   1.00
O30    O     0.66805   0.83419   0.69526   0.00000  Uiso   1.00
Zn31   Zn    0.83137   0.66284   0.75036   0.00000  Uiso   1.00
O32    O     0.83101   0.66270   0.93780   0.00000  Uiso   1.00
loop_
_geom_bond_atom_site_label_1
_geom_bond_atom_site_label_2
_geom_bond_distance
_geom_bond_site_symmetry_2
_ccdc_geom_bond_type
Zn1    O2      2.023   .     S
Zn1    O28     2.024   1_554 S
Zn1    O24     1.999   1_454 S
Zn1    O20     1.999   1_554 S
O2     Eu11    2.206   .     S
O2     Zn7     1.994   1_455 S
O2     Zn3     1.992   .     S
Zn3    O4      2.031   .     S
Zn3    O10     1.992   1_545 S
Zn3    O6      2.024   .     S
O4     Zn25    2.029   1_545 S
O4     Zn21    2.028   .     S
O4     Zn17    2.029   .     S
Zn5    O6      2.037   .     S
Zn5    O32     2.012   1_554 S
Zn5    O20     2.012   1_554 S
Zn5    O24     2.011   1_554 S
O6     Zn15    2.024   .     S
O6     Zn7     2.024   .     S
Zn7    O8      2.029   .     S
Zn7    O14     1.993   1_545 S
Zn7    O2      1.994   1_655 S
O8     Zn29    2.029   1_545 S
O8     Zn17    2.029   1_655 S
O8     Zn21    2.028   .     S
Zn9    O10     2.025   .     S
Zn9    O20     1.999   1_564 S
Zn9    O32     1.999   1_454 S
Zn9    O28     2.024   1_554 S
O10    Zn3     1.992   1_565 S
O10    Zn15    1.990   1_455 S
O10    Eu11    2.209   .     S
Eu11   O12     2.250   .     S
Eu11   O14     2.206   .     S
O12    Zn17    2.021   .     S
O12    Zn29    2.021   .     S
O12    Zn25    2.020   .     S
Zn13   O14     2.023   .     S
Zn13   O24     1.999   1_564 S
Zn13   O28     2.024   1_554 S
Zn13   O32     1.999   1_554 S
O14    Zn7     1.993   1_565 S
O14    Zn15    1.993   .     S
Zn15   O16     2.030   .     S
Zn15   O10     1.990   1_655 S
O16    Zn21    2.028   .     S
O16    Zn25    2.029   1_655 S
O16    Zn29    2.029   .     S
Zn17   O18     1.997   .     S
Zn17   O8      2.029   1_455 S
O18    Zn27    2.019   .     S
O18    Zn23    2.013   1_455 S
O18    Zn19    2.014   .     S
Zn19   O20     2.008   .     S
Zn19   O26     2.014   1_545 S
Zn19   O22     2.011   .     S
O20    Zn9     1.999   1_546 S
O20    Zn5     2.012   1_556 S
O20    Zn1     1.999   1_556 S
Zn21   O22     2.018   .     S
O22    Zn31    2.012   .     S
O22    Zn23    2.013   .     S
Zn23   O24     2.008   .     S
Zn23   O30     2.013   1_545 S
Zn23   O18     2.013   1_655 S
O24    Zn13    1.999   1_546 S
O24    Zn1     1.999   1_656 S
O24    Zn5     2.011   1_556 S
Zn25   O26     1.998   .     S
Zn25   O4      2.029   1_565 S
Zn25   O16     2.029   1_455 S
O26    Zn19    2.014   1_565 S
O26    Zn31    2.013   1_455 S
O26    Zn27    2.020   .     S
Zn27   O28     2.053   .     S
Zn27   O30     2.018   .     S
O28    Zn1     2.024   1_556 S
O28    Zn13    2.024   1_556 S
O28    Zn9     2.024   1_556 S
Zn29   O30     1.997   .     S
Zn29   O8      2.029   1_565 S
O30    Zn23    2.013   1_565 S
O30    Zn31    2.014   .     S
Zn31   O32     2.008   .     S
Zn31   O26     2.013   1_655 S
O32    Zn5     2.012   1_556 S
O32    Zn9     1.999   1_656 S
O32    Zn13    1.999   1_556 S
