data_ZnO
_audit_creation_date              2022-07-03
_audit_creation_method            'Materials Studio'
_symmetry_space_group_name_H-M    'P1'
_symmetry_Int_Tables_number       1
_symmetry_cell_setting            triclinic
loop_
_symmetry_equiv_pos_as_xyz
  x,y,z
_cell_length_a                    6.6448
_cell_length_b                    6.6444
_cell_length_c                    10.7085
_cell_angle_alpha                 90.0368
_cell_angle_beta                  89.9884
_cell_angle_gamma                 120.0149
loop_
_atom_site_label
_atom_site_type_symbol
_atom_site_fract_x
_atom_site_fract_y
_atom_site_fract_z
_atom_site_U_iso_or_equiv
_atom_site_adp_type
_atom_site_occupancy
Zn1    Zn    0.16361   0.32671  -0.00730   0.00000  Uiso   1.00
O2     O     0.15330   0.30713   0.18115   0.00000  Uiso   1.00
Zn3    Zn    0.33212   0.16634   0.25113   0.00000  Uiso   1.00
O4     O     0.33135   0.16549   0.44068   0.00000  Uiso   1.00
Zn5    Zn    0.66672   0.33323   0.00148   0.00000  Uiso   1.00
O6     O     0.66651   0.33364   0.19170   0.00000  Uiso   1.00
Zn7    Zn    0.83400   0.16706   0.25135   0.00000  Uiso   1.00
O8     O     0.83389   0.16530   0.44083   0.00000  Uiso   1.00
Zn9    Zn    0.16330   0.83628  -0.00766   0.00000  Uiso   1.00
O10    O     0.15302   0.84709   0.18061   0.00000  Uiso   1.00
Gd11   Gd    0.33397   0.66800   0.25076   0.00000  Uiso   1.00
O12    O     0.33311   0.66624   0.46166   0.00000  Uiso   1.00
Zn13   Zn    0.67330   0.83677  -0.00744   0.00000  Uiso   1.00
O14    O     0.69404   0.84775   0.18095   0.00000  Uiso   1.00
Zn15   Zn    0.83393   0.66808   0.25111   0.00000  Uiso   1.00
O16    O     0.83431   0.66828   0.44068   0.00000  Uiso   1.00
Zn17   Zn    0.16345   0.32691   0.50853   0.00000  Uiso   1.00
O18    O     0.16598   0.33166   0.69533   0.00000  Uiso   1.00
Zn19   Zn    0.33712   0.16838   0.75048   0.00000  Uiso   1.00
O20    O     0.33749   0.16848   0.93803   0.00000  Uiso   1.00
Zn21   Zn    0.66664   0.33324   0.49913   0.00000  Uiso   1.00
O22    O     0.66663   0.33309   0.68763   0.00000  Uiso   1.00
Zn23   Zn    0.83147   0.16846   0.75045   0.00000  Uiso   1.00
O24    O     0.83134   0.16881   0.93800   0.00000  Uiso   1.00
Zn25   Zn    0.16370   0.83635   0.50863   0.00000  Uiso   1.00
O26    O     0.16595   0.83375   0.69540   0.00000  Uiso   1.00
Zn27   Zn    0.33333   0.66640   0.75200   0.00000  Uiso   1.00
O28    O     0.33330   0.66637   0.94306   0.00000  Uiso   1.00
Zn29   Zn    0.67284   0.83606   0.50860   0.00000  Uiso   1.00
O30    O     0.66807   0.83384   0.69537   0.00000  Uiso   1.00
Zn31   Zn    0.83137   0.66267   0.75046   0.00000  Uiso   1.00
O32    O     0.83086   0.66215   0.93799   0.00000  Uiso   1.00
loop_
_geom_bond_atom_site_label_1
_geom_bond_atom_site_label_2
_geom_bond_distance
_geom_bond_site_symmetry_2
_ccdc_geom_bond_type
Zn1    O2      2.021   .     S
Zn1    O28     2.026   1_554 S
Zn1    O24     2.000   1_454 S
Zn1    O20     1.999   1_554 S
O2     Gd11    2.205   .     S
O2     Zn7     1.989   1_455 S
O2     Zn3     1.990   .     S
Zn3    O4      2.030   .     S
Zn3    O10     1.990   1_545 S
Zn3    O6      2.027   .     S
O4     Zn25    2.029   1_545 S
O4     Zn21    2.028   .     S
O4     Zn17    2.029   .     S
Zn5    O6      2.037   .     S
Zn5    O32     2.011   1_554 S
Zn5    O20     2.012   1_554 S
Zn5    O24     2.012   1_554 S
O6     Zn15    2.026   .     S
O6     Zn7     2.026   .     S
Zn7    O8      2.029   .     S
Zn7    O14     1.990   1_545 S
Zn7    O2      1.989   1_655 S
O8     Zn29    2.029   1_545 S
O8     Zn17    2.030   1_655 S
O8     Zn21    2.027   .     S
Zn9    O10     2.020   .     S
Zn9    O20     1.999   1_564 S
Zn9    O32     2.000   1_454 S
Zn9    O28     2.026   1_554 S
O10    Zn3     1.990   1_565 S
O10    Zn15    1.989   1_455 S
O10    Gd11    2.204   .     S
Gd11   O12     2.259   .     S
Gd11   O14     2.203   .     S
O12    Zn17    2.016   .     S
O12    Zn29    2.018   .     S
O12    Zn25    2.017   .     S
Zn13   O14     2.021   .     S
Zn13   O24     1.999   1_564 S
Zn13   O28     2.027   1_554 S
Zn13   O32     1.999   1_554 S
O14    Zn7     1.990   1_565 S
O14    Zn15    1.991   .     S
Zn15   O16     2.030   .     S
Zn15   O10     1.989   1_655 S
O16    Zn21    2.027   .     S
O16    Zn25    2.030   1_655 S
O16    Zn29    2.029   .     S
Zn17   O18     2.001   .     S
Zn17   O8      2.030   1_455 S
O18    Zn27    2.019   .     S
O18    Zn23    2.013   1_455 S
O18    Zn19    2.014   .     S
Zn19   O20     2.008   .     S
Zn19   O26     2.013   1_545 S
Zn19   O22     2.012   .     S
O20    Zn9     1.999   1_546 S
O20    Zn5     2.012   1_556 S
O20    Zn1     1.999   1_556 S
Zn21   O22     2.019   .     S
O22    Zn31    2.012   .     S
O22    Zn23    2.012   .     S
Zn23   O24     2.008   .     S
Zn23   O30     2.013   1_545 S
Zn23   O18     2.013   1_655 S
O24    Zn13    1.999   1_546 S
O24    Zn1     2.000   1_656 S
O24    Zn5     2.012   1_556 S
Zn25   O26     2.000   .     S
Zn25   O4      2.029   1_565 S
Zn25   O16     2.030   1_455 S
O26    Zn19    2.013   1_565 S
O26    Zn31    2.014   1_455 S
O26    Zn27    2.020   .     S
Zn27   O28     2.046   .     S
Zn27   O30     2.019   .     S
O28    Zn1     2.026   1_556 S
O28    Zn13    2.027   1_556 S
O28    Zn9     2.026   1_556 S
Zn29   O30     2.000   .     S
Zn29   O8      2.029   1_565 S
O30    Zn23    2.013   1_565 S
O30    Zn31    2.014   .     S
Zn31   O32     2.008   .     S
Zn31   O26     2.014   1_655 S
O32    Zn5     2.011   1_556 S
O32    Zn9     2.000   1_656 S
O32    Zn13    1.999   1_556 S
