data_ZnO
_audit_creation_date              2022-07-03
_audit_creation_method            'Materials Studio'
_symmetry_space_group_name_H-M    'P1'
_symmetry_Int_Tables_number       1
_symmetry_cell_setting            triclinic
loop_
_symmetry_equiv_pos_as_xyz
  x,y,z
_cell_length_a                    6.6966
_cell_length_b                    6.6966
_cell_length_c                    10.7315
_cell_angle_alpha                 90.0038
_cell_angle_beta                  89.9962
_cell_angle_gamma                 119.9825
loop_
_atom_site_label
_atom_site_type_symbol
_atom_site_fract_x
_atom_site_fract_y
_atom_site_fract_z
_atom_site_U_iso_or_equiv
_atom_site_adp_type
_atom_site_occupancy
Zn1    Zn    0.16147   0.32298  -0.01282   0.00000  Uiso   1.00
O2     O     0.14854   0.29706   0.17746   0.00000  Uiso   1.00
Zn3    Zn    0.33159   0.16576   0.25097   0.00000  Uiso   1.00
O4     O     0.33066   0.16533   0.43988   0.00000  Uiso   1.00
Zn5    Zn    0.66666   0.33334   0.00059   0.00000  Uiso   1.00
O6     O     0.66667   0.33333   0.19227   0.00000  Uiso   1.00
Zn7    Zn    0.83421   0.16579   0.25099   0.00000  Uiso   1.00
O8     O     0.83465   0.16535   0.43989   0.00000  Uiso   1.00
Zn9    Zn    0.16144   0.83856  -0.01284   0.00000  Uiso   1.00
O10    O     0.14852   0.85148   0.17744   0.00000  Uiso   1.00
La11   La    0.33336   0.66664   0.25037   0.00000  Uiso   1.00
O12    O     0.33334   0.66666   0.46858   0.00000  Uiso   1.00
Zn13   Zn    0.67702   0.83853  -0.01282   0.00000  Uiso   1.00
O14    O     0.70294   0.85146   0.17746   0.00000  Uiso   1.00
Zn15   Zn    0.83424   0.66841   0.25097   0.00000  Uiso   1.00
O16    O     0.83467   0.66934   0.43988   0.00000  Uiso   1.00
Zn17   Zn    0.16157   0.32321   0.51282   0.00000  Uiso   1.00
O18    O     0.16615   0.33228   0.69868   0.00000  Uiso   1.00
Zn19   Zn    0.33946   0.16969   0.74964   0.00000  Uiso   1.00
O20    O     0.33930   0.16966   0.93744   0.00000  Uiso   1.00
Zn21   Zn    0.66663   0.33337   0.49814   0.00000  Uiso   1.00
O22    O     0.66668   0.33332   0.68647   0.00000  Uiso   1.00
Zn23   Zn    0.83030   0.16970   0.74964   0.00000  Uiso   1.00
O24    O     0.83036   0.16964   0.93744   0.00000  Uiso   1.00
Zn25   Zn    0.16157   0.83843   0.51281   0.00000  Uiso   1.00
O26    O     0.16616   0.83384   0.69868   0.00000  Uiso   1.00
Zn27   Zn    0.33336   0.66664   0.75354   0.00000  Uiso   1.00
O28    O     0.33333   0.66667   0.94867   0.00000  Uiso   1.00
Zn29   Zn    0.67679   0.83843   0.51282   0.00000  Uiso   1.00
O30    O     0.66772   0.83385   0.69868   0.00000  Uiso   1.00
Zn31   Zn    0.83031   0.66054   0.74964   0.00000  Uiso   1.00
O32    O     0.83034   0.66070   0.93744   0.00000  Uiso   1.00
loop_
_geom_bond_atom_site_label_1
_geom_bond_atom_site_label_2
_geom_bond_distance
_geom_bond_site_symmetry_2
_ccdc_geom_bond_type
Zn1    O2      2.048   .     S
Zn1    O28     2.036   1_554 S
Zn1    O24     1.995   1_454 S
Zn1    O20     1.995   1_554 S
O2     La11    2.282   .     S
O2     Zn7     1.994   1_455 S
O2     Zn3     1.994   .     S
Zn3    O4      2.027   .     S
Zn3    O10     1.994   1_545 S
Zn3    O6      2.043   .     S
O4     Zn25    2.052   1_545 S
O4     Zn21    2.047   .     S
O4     Zn17    2.052   .     S
Zn5    O6      2.057   .     S
Zn5    O32     2.016   1_554 S
Zn5    O20     2.016   1_554 S
Zn5    O24     2.016   1_554 S
O6     Zn15    2.043   .     S
O6     Zn7     2.043   .     S
Zn7    O8      2.027   .     S
Zn7    O14     1.994   1_545 S
Zn7    O2      1.994   1_655 S
O8     Zn29    2.052   1_545 S
O8     Zn17    2.052   1_655 S
O8     Zn21    2.046   .     S
Zn9    O10     2.047   .     S
Zn9    O20     1.995   1_564 S
Zn9    O32     1.995   1_454 S
Zn9    O28     2.036   1_554 S
O10    Zn3     1.994   1_565 S
O10    Zn15    1.994   1_455 S
O10    La11    2.282   .     S
La11   O12     2.342   .     S
La11   O14     2.282   .     S
O12    Zn17    2.048   .     S
O12    Zn29    2.048   .     S
O12    Zn25    2.048   .     S
Zn13   O14     2.048   .     S
Zn13   O24     1.995   1_564 S
Zn13   O28     2.036   1_554 S
Zn13   O32     1.995   1_554 S
O14    Zn7     1.994   1_565 S
O14    Zn15    1.994   .     S
Zn15   O16     2.027   .     S
Zn15   O10     1.994   1_655 S
O16    Zn21    2.047   .     S
O16    Zn25    2.052   1_655 S
O16    Zn29    2.052   .     S
Zn17   O18     1.995   .     S
Zn17   O8      2.052   1_455 S
O18    Zn27    2.027   .     S
O18    Zn23    2.024   1_455 S
O18    Zn19    2.024   .     S
Zn19   O20     2.015   .     S
Zn19   O26     2.024   1_545 S
Zn19   O22     2.015   .     S
O20    Zn9     1.995   1_546 S
O20    Zn5     2.016   1_556 S
O20    Zn1     1.995   1_556 S
Zn21   O22     2.021   .     S
O22    Zn31    2.015   .     S
O22    Zn23    2.015   .     S
Zn23   O24     2.015   .     S
Zn23   O30     2.024   1_545 S
Zn23   O18     2.024   1_655 S
O24    Zn13    1.995   1_546 S
O24    Zn1     1.995   1_656 S
O24    Zn5     2.016   1_556 S
Zn25   O26     1.995   .     S
Zn25   O4      2.052   1_565 S
Zn25   O16     2.052   1_455 S
O26    Zn19    2.024   1_565 S
O26    Zn31    2.024   1_455 S
O26    Zn27    2.027   .     S
Zn27   O28     2.094   .     S
Zn27   O30     2.027   .     S
O28    Zn1     2.036   1_556 S
O28    Zn13    2.036   1_556 S
O28    Zn9     2.036   1_556 S
Zn29   O30     1.995   .     S
Zn29   O8      2.052   1_565 S
O30    Zn23    2.024   1_565 S
O30    Zn31    2.024   .     S
Zn31   O32     2.015   .     S
Zn31   O26     2.024   1_655 S
O32    Zn5     2.016   1_556 S
O32    Zn9     1.995   1_656 S
O32    Zn13    1.995   1_556 S
