data_ZnO
_audit_creation_date              2022-07-03
_audit_creation_method            'Materials Studio'
_symmetry_space_group_name_H-M    'P1'
_symmetry_Int_Tables_number       1
_symmetry_cell_setting            triclinic
loop_
_symmetry_equiv_pos_as_xyz
  x,y,z
_cell_length_a                    6.6572
_cell_length_b                    6.6572
_cell_length_c                    10.7069
_cell_angle_alpha                 90.2644
_cell_angle_beta                  89.7356
_cell_angle_gamma                 119.7960
loop_
_atom_site_label
_atom_site_type_symbol
_atom_site_fract_x
_atom_site_fract_y
_atom_site_fract_z
_atom_site_U_iso_or_equiv
_atom_site_adp_type
_atom_site_occupancy
Zn1    Zn    0.16896   0.33753  -0.00058   0.00000  Uiso   1.00
O2     O     0.16788   0.33723   0.18765   0.00000  Uiso   1.00
Zn3    Zn    0.32360   0.16136   0.24057   0.00000  Uiso   1.00
O4     O     0.29947   0.14983   0.43092   0.00000  Uiso   1.00
Zn5    Zn    0.66693   0.33307   0.00361   0.00000  Uiso   1.00
O6     O     0.66581   0.33419   0.19802   0.00000  Uiso   1.00
Zn7    Zn    0.83688   0.16312   0.24058   0.00000  Uiso   1.00
O8     O     0.84325   0.15675   0.43167   0.00000  Uiso   1.00
Zn9    Zn    0.16925   0.83075  -0.00085   0.00000  Uiso   1.00
O10    O     0.16928   0.83072   0.18725   0.00000  Uiso   1.00
Zn11   Zn    0.33376   0.66624   0.25078   0.00000  Uiso   1.00
O12    O     0.33458   0.66542   0.44150   0.00000  Uiso   1.00
Zn13   Zn    0.66247   0.83104  -0.00058   0.00000  Uiso   1.00
O14    O     0.66277   0.83212   0.18765   0.00000  Uiso   1.00
Zn15   Zn    0.83864   0.67640   0.24057   0.00000  Uiso   1.00
O16    O     0.85017   0.70053   0.43092   0.00000  Uiso   1.00
Zn17   Zn    0.16179   0.33292   0.50159   0.00000  Uiso   1.00
O18    O     0.16764   0.33019   0.69036   0.00000  Uiso   1.00
Zn19   Zn    0.32766   0.16153   0.75985   0.00000  Uiso   1.00
O20    O     0.33408   0.16589   0.94629   0.00000  Uiso   1.00
Nd21   Nd    0.66152   0.33848   0.49987   0.00000  Uiso   1.00
O22    O     0.66844   0.33156   0.71076   0.00000  Uiso   1.00
Zn23   Zn    0.83854   0.16146   0.75919   0.00000  Uiso   1.00
O24    O     0.83422   0.16578   0.94588   0.00000  Uiso   1.00
Zn25   Zn    0.16727   0.83273   0.50251   0.00000  Uiso   1.00
O26    O     0.16681   0.83319   0.69131   0.00000  Uiso   1.00
Zn27   Zn    0.33451   0.66549   0.74851   0.00000  Uiso   1.00
O28    O     0.33435   0.66565   0.93693   0.00000  Uiso   1.00
Zn29   Zn    0.66708   0.83821   0.50159   0.00000  Uiso   1.00
O30    O     0.66981   0.83236   0.69036   0.00000  Uiso   1.00
Zn31   Zn    0.83847   0.67234   0.75985   0.00000  Uiso   1.00
O32    O     0.83411   0.66592   0.94629   0.00000  Uiso   1.00
loop_
_geom_bond_atom_site_label_1
_geom_bond_atom_site_label_2
_geom_bond_distance
_geom_bond_site_symmetry_2
_ccdc_geom_bond_type
Zn1    O2      2.015   .     S
Zn1    O28     2.012   1_554 S
Zn1    O24     2.019   1_454 S
Zn1    O20     2.018   1_554 S
O2     Zn11    2.016   .     S
O2     Zn7     1.994   1_455 S
O2     Zn3     1.996   .     S
Zn3    O4      2.042   .     S
Zn3    O10     1.993   1_545 S
Zn3    O6      2.028   .     S
O4     Zn25    1.995   1_545 S
O4     Nd21    2.221   .     S
O4     Zn17    1.998   .     S
Zn5    O6      2.082   .     S
Zn5    O32     2.020   1_554 S
Zn5    O20     2.020   1_554 S
Zn5    O24     2.021   1_554 S
O6     Zn15    2.028   .     S
O6     Zn7     2.025   .     S
Zn7    O8      2.048   .     S
Zn7    O14     1.994   1_545 S
Zn7    O2      1.994   1_655 S
O8     Zn29    1.992   1_545 S
O8     Zn17    1.992   1_655 S
O8     Nd21    2.213   .     S
Zn9    O10     2.014   .     S
Zn9    O20     2.019   1_564 S
Zn9    O32     2.019   1_454 S
Zn9    O28     2.012   1_554 S
O10    Zn3     1.993   1_565 S
O10    Zn15    1.993   1_455 S
O10    Zn11    2.016   .     S
Zn11   O12     2.042   .     S
Zn11   O14     2.016   .     S
O12    Zn17    2.028   .     S
O12    Zn29    2.028   .     S
O12    Zn25    2.032   .     S
Zn13   O14     2.015   .     S
Zn13   O24     2.019   1_564 S
Zn13   O28     2.012   1_554 S
Zn13   O32     2.018   1_554 S
O14    Zn7     1.994   1_565 S
O14    Zn15    1.996   .     S
Zn15   O16     2.042   .     S
Zn15   O10     1.993   1_655 S
O16    Nd21    2.221   .     S
O16    Zn25    1.995   1_655 S
O16    Zn29    1.998   .     S
Zn17   O18     2.022   .     S
Zn17   O8      1.992   1_455 S
O18    Zn27    2.033   .     S
O18    Zn23    2.038   1_455 S
O18    Zn19    2.038   .     S
Zn19   O20     1.997   .     S
Zn19   O26     2.032   1_545 S
Zn19   O22     2.036   .     S
O20    Zn9     2.019   1_546 S
O20    Zn5     2.020   1_556 S
O20    Zn1     2.018   1_556 S
Nd21   O22     2.260   .     S
O22    Zn31    2.036   .     S
O22    Zn23    2.029   .     S
Zn23   O24     1.999   .     S
Zn23   O30     2.038   1_545 S
Zn23   O18     2.038   1_655 S
O24    Zn13    2.019   1_546 S
O24    Zn1     2.019   1_656 S
O24    Zn5     2.021   1_556 S
Zn25   O26     2.021   .     S
Zn25   O4      1.995   1_565 S
Zn25   O16     1.995   1_455 S
O26    Zn19    2.032   1_565 S
O26    Zn31    2.032   1_455 S
O26    Zn27    2.030   .     S
Zn27   O28     2.017   .     S
Zn27   O30     2.033   .     S
O28    Zn1     2.012   1_556 S
O28    Zn13    2.012   1_556 S
O28    Zn9     2.012   1_556 S
Zn29   O30     2.022   .     S
Zn29   O8      1.992   1_565 S
O30    Zn23    2.038   1_565 S
O30    Zn31    2.038   .     S
Zn31   O32     1.997   .     S
Zn31   O26     2.032   1_655 S
O32    Zn5     2.020   1_556 S
O32    Zn9     2.019   1_656 S
O32    Zn13    2.018   1_556 S
