data_ZnO
_audit_creation_date              2022-07-03
_audit_creation_method            'Materials Studio'
_symmetry_space_group_name_H-M    'P1'
_symmetry_Int_Tables_number       1
_symmetry_cell_setting            triclinic
loop_
_symmetry_equiv_pos_as_xyz
  x,y,z
_cell_length_a                    6.6600
_cell_length_b                    6.6616
_cell_length_c                    10.6918
_cell_angle_alpha                 90.0086
_cell_angle_beta                  89.7644
_cell_angle_gamma                 120.0245
loop_
_atom_site_label
_atom_site_type_symbol
_atom_site_fract_x
_atom_site_fract_y
_atom_site_fract_z
_atom_site_U_iso_or_equiv
_atom_site_adp_type
_atom_site_occupancy
Zn1    Zn    0.16198   0.32417  -0.00843   0.00000  Uiso   1.00
O2     O     0.15106   0.30384   0.18273   0.00000  Uiso   1.00
Zn3    Zn    0.33363   0.16698   0.25230   0.00000  Uiso   1.00
O4     O     0.33265   0.16631   0.44100   0.00000  Uiso   1.00
Zn5    Zn    0.66667   0.33324   0.00023   0.00000  Uiso   1.00
O6     O     0.66685   0.33329   0.19112   0.00000  Uiso   1.00
Zn7    Zn    0.83067   0.16441   0.25214   0.00000  Uiso   1.00
O8     O     0.83633   0.16719   0.44083   0.00000  Uiso   1.00
Zn9    Zn    0.16190   0.83777  -0.00854   0.00000  Uiso   1.00
O10    O     0.15062   0.84761   0.18260   0.00000  Uiso   1.00
Pm11   Pm    0.32945   0.66538   0.24983   0.00000  Uiso   1.00
O12    O     0.33748   0.66878   0.45803   0.00000  Uiso   1.00
Zn13   Zn    0.67432   0.83709  -0.00920   0.00000  Uiso   1.00
O14    O     0.68966   0.84475   0.18185   0.00000  Uiso   1.00
Zn15   Zn    0.83040   0.66597   0.25215   0.00000  Uiso   1.00
O16    O     0.83631   0.66906   0.44083   0.00000  Uiso   1.00
Zn17   Zn    0.16481   0.32757   0.50866   0.00000  Uiso   1.00
O18    O     0.16745   0.33385   0.69546   0.00000  Uiso   1.00
Zn19   Zn    0.33742   0.16866   0.74913   0.00000  Uiso   1.00
O20    O     0.33755   0.16878   0.93771   0.00000  Uiso   1.00
Zn21   Zn    0.66743   0.33365   0.49880   0.00000  Uiso   1.00
O22    O     0.66720   0.33350   0.68729   0.00000  Uiso   1.00
Zn23   Zn    0.83157   0.16897   0.74911   0.00000  Uiso   1.00
O24    O     0.83150   0.16851   0.93769   0.00000  Uiso   1.00
Zn25   Zn    0.16476   0.83723   0.50871   0.00000  Uiso   1.00
O26    O     0.16746   0.83344   0.69549   0.00000  Uiso   1.00
Zn27   Zn    0.33360   0.66672   0.75378   0.00000  Uiso   1.00
O28    O     0.33253   0.66627   0.94802   0.00000  Uiso   1.00
Zn29   Zn    0.67631   0.83813   0.50888   0.00000  Uiso   1.00
O30    O     0.66748   0.83366   0.69584   0.00000  Uiso   1.00
Zn31   Zn    0.83155   0.66245   0.74910   0.00000  Uiso   1.00
O32    O     0.83140   0.66279   0.93767   0.00000  Uiso   1.00
loop_
_geom_bond_atom_site_label_1
_geom_bond_atom_site_label_2
_geom_bond_distance
_geom_bond_site_symmetry_2
_ccdc_geom_bond_type
Zn1    O2      2.047   .     S
Zn1    O28     2.026   1_554 S
Zn1    O24     1.994   1_454 S
Zn1    O20     1.994   1_554 S
O2     Pm11    2.207   .     S
O2     Zn7     1.993   1_455 S
O2     Zn3     1.995   .     S
Zn3    O4      2.018   .     S
Zn3    O10     1.995   1_545 S
Zn3    O6      2.027   .     S
O4     Zn25    2.030   1_545 S
O4     Zn21    2.030   .     S
O4     Zn17    2.030   .     S
Zn5    O6      2.041   .     S
Zn5    O32     2.014   1_554 S
Zn5    O20     2.015   1_554 S
Zn5    O24     2.014   1_554 S
O6     Zn15    2.028   .     S
O6     Zn7     2.029   .     S
Zn7    O8      2.018   .     S
Zn7    O14     1.996   1_545 S
Zn7    O2      1.993   1_655 S
O8     Zn29    2.031   1_545 S
O8     Zn17    2.031   1_655 S
O8     Zn21    2.030   .     S
Zn9    O10     2.047   .     S
Zn9    O20     1.994   1_564 S
Zn9    O32     1.994   1_454 S
Zn9    O28     2.027   1_554 S
O10    Zn3     1.995   1_565 S
O10    Zn15    1.992   1_455 S
O10    Pm11    2.205   .     S
Pm11   O12     2.227   .     S
Pm11   O14     2.197   .     S
O12    Zn17    2.040   .     S
O12    Zn29    2.030   .     S
O12    Zn25    2.040   .     S
Zn13   O14     2.045   .     S
Zn13   O24     1.994   1_564 S
Zn13   O28     2.025   1_554 S
Zn13   O32     1.994   1_554 S
O14    Zn7     1.996   1_565 S
O14    Zn15    1.996   .     S
Zn15   O16     2.018   .     S
Zn15   O10     1.992   1_655 S
O16    Zn21    2.030   .     S
O16    Zn25    2.032   1_655 S
O16    Zn29    2.032   .     S
Zn17   O18     1.998   .     S
Zn17   O8      2.031   1_455 S
O18    Zn27    2.020   .     S
O18    Zn23    2.018   1_455 S
O18    Zn19    2.018   .     S
Zn19   O20     2.016   .     S
Zn19   O26     2.018   1_545 S
Zn19   O22     2.010   .     S
O20    Zn9     1.994   1_546 S
O20    Zn5     2.015   1_556 S
O20    Zn1     1.994   1_556 S
Zn21   O22     2.015   .     S
O22    Zn31    2.010   .     S
O22    Zn23    2.011   .     S
Zn23   O24     2.016   .     S
Zn23   O30     2.017   1_545 S
Zn23   O18     2.018   1_655 S
O24    Zn13    1.994   1_546 S
O24    Zn1     1.994   1_656 S
O24    Zn5     2.014   1_556 S
Zn25   O26     1.997   .     S
Zn25   O4      2.030   1_565 S
Zn25   O16     2.032   1_455 S
O26    Zn19    2.018   1_565 S
O26    Zn31    2.018   1_455 S
O26    Zn27    2.020   .     S
Zn27   O28     2.077   .     S
Zn27   O30     2.020   .     S
O28    Zn1     2.026   1_556 S
O28    Zn13    2.025   1_556 S
O28    Zn9     2.027   1_556 S
Zn29   O30     1.999   .     S
Zn29   O8      2.031   1_565 S
O30    Zn23    2.017   1_565 S
O30    Zn31    2.018   .     S
Zn31   O32     2.016   .     S
Zn31   O26     2.018   1_655 S
O32    Zn5     2.014   1_556 S
O32    Zn9     1.994   1_656 S
O32    Zn13    1.994   1_556 S
