data_ZnO
_audit_creation_date              2022-07-03
_audit_creation_method            'Materials Studio'
_symmetry_space_group_name_H-M    'P1'
_symmetry_Int_Tables_number       1
_symmetry_cell_setting            triclinic
loop_
_symmetry_equiv_pos_as_xyz
  x,y,z
_cell_length_a                    6.6583
_cell_length_b                    6.6773
_cell_length_c                    10.7119
_cell_angle_alpha                 89.8504
_cell_angle_beta                  89.9993
_cell_angle_gamma                 119.9270
loop_
_atom_site_label
_atom_site_type_symbol
_atom_site_fract_x
_atom_site_fract_y
_atom_site_fract_z
_atom_site_U_iso_or_equiv
_atom_site_adp_type
_atom_site_occupancy
Zn1    Zn    0.16176   0.32339  -0.01036   0.00000  Uiso   1.00
O2     O     0.15003   0.29976   0.18076   0.00000  Uiso   1.00
Zn3    Zn    0.33454   0.16489   0.25207   0.00000  Uiso   1.00
O4     O     0.33178   0.16693   0.44058   0.00000  Uiso   1.00
Zn5    Zn    0.66718   0.33416  -0.00006   0.00000  Uiso   1.00
O6     O     0.66808   0.33570   0.19110   0.00000  Uiso   1.00
Zn7    Zn    0.83021   0.16440   0.25207   0.00000  Uiso   1.00
O8     O     0.83534   0.16692   0.44059   0.00000  Uiso   1.00
Zn9    Zn    0.16286   0.83824  -0.01038   0.00000  Uiso   1.00
O10    O     0.15425   0.84695   0.18132   0.00000  Uiso   1.00
Pr11   Pr    0.33045   0.66247   0.24986   0.00000  Uiso   1.00
O12    O     0.33405   0.66807   0.45987   0.00000  Uiso   1.00
Zn13   Zn    0.67512   0.83805  -0.01031   0.00000  Uiso   1.00
O14    O     0.69157   0.84624   0.18141   0.00000  Uiso   1.00
Zn15   Zn    0.83355   0.66780   0.25198   0.00000  Uiso   1.00
O16    O     0.83475   0.66936   0.44041   0.00000  Uiso   1.00
Zn17   Zn    0.16323   0.32627   0.51047   0.00000  Uiso   1.00
O18    O     0.16721   0.33412   0.69661   0.00000  Uiso   1.00
Zn19   Zn    0.33799   0.16884   0.74929   0.00000  Uiso   1.00
O20    O     0.33813   0.16871   0.93756   0.00000  Uiso   1.00
Zn21   Zn    0.66723   0.33421   0.49921   0.00000  Uiso   1.00
O22    O     0.66735   0.33433   0.68743   0.00000  Uiso   1.00
Zn23   Zn    0.83099   0.16879   0.74931   0.00000  Uiso   1.00
O24    O     0.83061   0.16854   0.93759   0.00000  Uiso   1.00
Zn25   Zn    0.16309   0.83859   0.51002   0.00000  Uiso   1.00
O26    O     0.16720   0.83413   0.69643   0.00000  Uiso   1.00
Zn27   Zn    0.33341   0.66668   0.75387   0.00000  Uiso   1.00
O28    O     0.33268   0.66558   0.94842   0.00000  Uiso   1.00
Zn29   Zn    0.67554   0.83853   0.50996   0.00000  Uiso   1.00
O30    O     0.66722   0.83412   0.69639   0.00000  Uiso   1.00
Zn31   Zn    0.83118   0.66226   0.74947   0.00000  Uiso   1.00
O32    O     0.83142   0.66298   0.93788   0.00000  Uiso   1.00
loop_
_geom_bond_atom_site_label_1
_geom_bond_atom_site_label_2
_geom_bond_distance
_geom_bond_site_symmetry_2
_ccdc_geom_bond_type
Zn1    O2      2.051   .     S
Zn1    O28     2.028   1_554 S
Zn1    O24     1.992   1_454 S
Zn1    O20     1.992   1_554 S
O2     Pr11    2.228   .     S
O2     Zn7     2.003   1_455 S
O2     Zn3     2.001   .     S
Zn3    O4      2.020   .     S
Zn3    O10     1.997   1_545 S
Zn3    O6      2.032   .     S
O4     Zn25    2.039   1_545 S
O4     Zn21    2.036   .     S
O4     Zn17    2.036   .     S
Zn5    O6      2.048   .     S
Zn5    O32     2.014   1_554 S
Zn5    O20     2.014   1_554 S
Zn5    O24     2.014   1_554 S
O6     Zn15    2.031   .     S
O6     Zn7     2.032   .     S
Zn7    O8      2.020   .     S
Zn7    O14     1.998   1_545 S
Zn7    O2      2.003   1_655 S
O8     Zn29    2.039   1_545 S
O8     Zn17    2.036   1_655 S
O8     Zn21    2.036   .     S
Zn9    O10     2.056   .     S
Zn9    O20     1.992   1_564 S
Zn9    O32     1.993   1_454 S
Zn9    O28     2.026   1_554 S
O10    Zn3     1.997   1_565 S
O10    Zn15    2.003   1_455 S
O10    Pr11    2.207   .     S
Pr11   O12     2.250   .     S
Pr11   O14     2.208   .     S
O12    Zn17    2.049   .     S
O12    Zn29    2.043   .     S
O12    Zn25    2.044   .     S
Zn13   O14     2.056   .     S
Zn13   O24     1.992   1_564 S
Zn13   O28     2.026   1_554 S
Zn13   O32     1.994   1_554 S
O14    Zn7     1.998   1_565 S
O14    Zn15    2.001   .     S
Zn15   O16     2.019   .     S
Zn15   O10     2.003   1_655 S
O16    Zn21    2.037   .     S
O16    Zn25    2.038   1_655 S
O16    Zn29    2.038   .     S
Zn17   O18     1.995   .     S
Zn17   O8      2.036   1_455 S
O18    Zn27    2.022   .     S
O18    Zn23    2.020   1_455 S
O18    Zn19    2.020   .     S
Zn19   O20     2.017   .     S
Zn19   O26     2.020   1_545 S
Zn19   O22     2.012   .     S
O20    Zn9     1.992   1_546 S
O20    Zn5     2.014   1_556 S
O20    Zn1     1.992   1_556 S
Zn21   O22     2.016   .     S
O22    Zn31    2.013   .     S
O22    Zn23    2.012   .     S
Zn23   O24     2.017   .     S
Zn23   O30     2.020   1_545 S
Zn23   O18     2.020   1_655 S
O24    Zn13    1.992   1_546 S
O24    Zn1     1.992   1_656 S
O24    Zn5     2.014   1_556 S
Zn25   O26     1.997   .     S
Zn25   O4      2.039   1_565 S
Zn25   O16     2.038   1_455 S
O26    Zn19    2.020   1_565 S
O26    Zn31    2.020   1_455 S
O26    Zn27    2.021   .     S
Zn27   O28     2.084   .     S
Zn27   O30     2.021   .     S
O28    Zn1     2.028   1_556 S
O28    Zn13    2.026   1_556 S
O28    Zn9     2.026   1_556 S
Zn29   O30     1.998   .     S
Zn29   O8      2.039   1_565 S
O30    Zn23    2.020   1_565 S
O30    Zn31    2.020   .     S
Zn31   O32     2.018   .     S
Zn31   O26     2.020   1_655 S
O32    Zn5     2.014   1_556 S
O32    Zn9     1.993   1_656 S
O32    Zn13    1.994   1_556 S
