data_ZnO
_audit_creation_date              2022-07-03
_audit_creation_method            'Materials Studio'
_symmetry_space_group_name_H-M    'P1'
_symmetry_Int_Tables_number       1
_symmetry_cell_setting            triclinic
loop_
_symmetry_equiv_pos_as_xyz
  x,y,z
_cell_length_a                    6.6424
_cell_length_b                    6.6424
_cell_length_c                    10.7197
_cell_angle_alpha                 90.1081
_cell_angle_beta                  89.8920
_cell_angle_gamma                 119.8700
loop_
_atom_site_label
_atom_site_type_symbol
_atom_site_fract_x
_atom_site_fract_y
_atom_site_fract_z
_atom_site_U_iso_or_equiv
_atom_site_adp_type
_atom_site_occupancy
Zn1    Zn    0.16311   0.32715  -0.00754   0.00000  Uiso   1.00
O2     O     0.15128   0.30575   0.18167   0.00000  Uiso   1.00
Zn3    Zn    0.33242   0.16559   0.25106   0.00000  Uiso   1.00
O4     O     0.33147   0.16473   0.44042   0.00000  Uiso   1.00
Zn5    Zn    0.66648   0.33352   0.00079   0.00000  Uiso   1.00
O6     O     0.66594   0.33406   0.19094   0.00000  Uiso   1.00
Zn7    Zn    0.83237   0.16763   0.25193   0.00000  Uiso   1.00
O8     O     0.83436   0.16564   0.44092   0.00000  Uiso   1.00
Zn9    Zn    0.16304   0.83696  -0.00892   0.00000  Uiso   1.00
O10    O     0.15365   0.84635   0.17955   0.00000  Uiso   1.00
Sm11   Sm    0.33384   0.66616   0.25244   0.00000  Uiso   1.00
O12    O     0.33444   0.66556   0.46298   0.00000  Uiso   1.00
Zn13   Zn    0.67285   0.83689  -0.00754   0.00000  Uiso   1.00
O14    O     0.69425   0.84872   0.18167   0.00000  Uiso   1.00
Zn15   Zn    0.83441   0.66758   0.25106   0.00000  Uiso   1.00
O16    O     0.83527   0.66853   0.44042   0.00000  Uiso   1.00
Zn17   Zn    0.16292   0.32544   0.50902   0.00000  Uiso   1.00
O18    O     0.16577   0.33195   0.69536   0.00000  Uiso   1.00
Zn19   Zn    0.33732   0.16873   0.75019   0.00000  Uiso   1.00
O20    O     0.33754   0.16914   0.93766   0.00000  Uiso   1.00
Zn21   Zn    0.66644   0.33355   0.49904   0.00000  Uiso   1.00
O22    O     0.66658   0.33342   0.68730   0.00000  Uiso   1.00
Zn23   Zn    0.83140   0.16860   0.75034   0.00000  Uiso   1.00
O24    O     0.83145   0.16855   0.93789   0.00000  Uiso   1.00
Zn25   Zn    0.16362   0.83638   0.50917   0.00000  Uiso   1.00
O26    O     0.16600   0.83400   0.69544   0.00000  Uiso   1.00
Zn27   Zn    0.33356   0.66644   0.75195   0.00000  Uiso   1.00
O28    O     0.33348   0.66652   0.94338   0.00000  Uiso   1.00
Zn29   Zn    0.67456   0.83708   0.50902   0.00000  Uiso   1.00
O30    O     0.66805   0.83423   0.69536   0.00000  Uiso   1.00
Zn31   Zn    0.83127   0.66268   0.75019   0.00000  Uiso   1.00
O32    O     0.83086   0.66246   0.93766   0.00000  Uiso   1.00
loop_
_geom_bond_atom_site_label_1
_geom_bond_atom_site_label_2
_geom_bond_distance
_geom_bond_site_symmetry_2
_ccdc_geom_bond_type
Zn1    O2      2.032   .     S
Zn1    O28     2.025   1_554 S
Zn1    O24     1.999   1_454 S
Zn1    O20     1.999   1_554 S
O2     Sm11    2.210   .     S
O2     Zn7     1.989   1_455 S
O2     Zn3     1.997   .     S
Zn3    O4      2.030   .     S
Zn3    O10     1.996   1_545 S
Zn3    O6      2.026   .     S
O4     Zn25    2.031   1_545 S
O4     Zn21    2.030   .     S
O4     Zn17    2.029   .     S
Zn5    O6      2.038   .     S
Zn5    O32     2.013   1_554 S
Zn5    O20     2.013   1_554 S
Zn5    O24     2.012   1_554 S
O6     Zn15    2.026   .     S
O6     Zn7     2.023   .     S
Zn7    O8      2.026   .     S
Zn7    O14     1.989   1_545 S
Zn7    O2      1.989   1_655 S
O8     Zn29    2.029   1_545 S
O8     Zn17    2.029   1_655 S
O8     Zn21    2.027   .     S
Zn9    O10     2.023   .     S
Zn9    O20     1.999   1_564 S
Zn9    O32     1.999   1_454 S
Zn9    O28     2.024   1_554 S
O10    Zn3     1.996   1_565 S
O10    Zn15    1.996   1_455 S
O10    Sm11    2.216   .     S
Sm11   O12     2.257   .     S
Sm11   O14     2.210   .     S
O12    Zn17    2.021   .     S
O12    Zn29    2.021   .     S
O12    Zn25    2.024   .     S
Zn13   O14     2.032   .     S
Zn13   O24     1.999   1_564 S
Zn13   O28     2.025   1_554 S
Zn13   O32     1.999   1_554 S
O14    Zn7     1.989   1_565 S
O14    Zn15    1.997   .     S
Zn15   O16     2.030   .     S
Zn15   O10     1.996   1_655 S
O16    Zn21    2.030   .     S
O16    Zn25    2.031   1_655 S
O16    Zn29    2.029   .     S
Zn17   O18     1.998   .     S
Zn17   O8      2.029   1_455 S
O18    Zn27    2.019   .     S
O18    Zn23    2.014   1_455 S
O18    Zn19    2.014   .     S
Zn19   O20     2.010   .     S
Zn19   O26     2.015   1_545 S
Zn19   O22     2.012   .     S
O20    Zn9     1.999   1_546 S
O20    Zn5     2.013   1_556 S
O20    Zn1     1.999   1_556 S
Zn21   O22     2.018   .     S
O22    Zn31    2.012   .     S
O22    Zn23    2.013   .     S
Zn23   O24     2.010   .     S
Zn23   O30     2.014   1_545 S
Zn23   O18     2.014   1_655 S
O24    Zn13    1.999   1_546 S
O24    Zn1     1.999   1_656 S
O24    Zn5     2.012   1_556 S
Zn25   O26     1.997   .     S
Zn25   O4      2.031   1_565 S
Zn25   O16     2.031   1_455 S
O26    Zn19    2.015   1_565 S
O26    Zn31    2.015   1_455 S
O26    Zn27    2.021   .     S
Zn27   O28     2.052   .     S
Zn27   O30     2.019   .     S
O28    Zn1     2.025   1_556 S
O28    Zn13    2.025   1_556 S
O28    Zn9     2.024   1_556 S
Zn29   O30     1.998   .     S
Zn29   O8      2.029   1_565 S
O30    Zn23    2.014   1_565 S
O30    Zn31    2.014   .     S
Zn31   O32     2.010   .     S
Zn31   O26     2.015   1_655 S
O32    Zn5     2.013   1_556 S
O32    Zn9     1.999   1_656 S
O32    Zn13    1.999   1_556 S
