data_ZnO
_audit_creation_date              2022-07-03
_audit_creation_method            'Materials Studio'
_symmetry_space_group_name_H-M    'P1'
_symmetry_Int_Tables_number       1
_symmetry_cell_setting            triclinic
loop_
_symmetry_equiv_pos_as_xyz
  x,y,z
_cell_length_a                    6.5697
_cell_length_b                    6.5697
_cell_length_c                    10.5930
_cell_angle_alpha                 90.0000
_cell_angle_beta                  90.0000
_cell_angle_gamma                 119.9929
loop_
_atom_site_label
_atom_site_type_symbol
_atom_site_fract_x
_atom_site_fract_y
_atom_site_fract_z
_atom_site_U_iso_or_equiv
_atom_site_adp_type
_atom_site_occupancy
Zn1    Zn    0.16666   0.33335   0.00077   0.00000  Uiso   1.00
O2     O     0.16666   0.33335   0.19053   0.00000  Uiso   1.00
Zn3    Zn    0.33335   0.16666   0.25077   0.00000  Uiso   1.00
O4     O     0.33335   0.16666   0.44053   0.00000  Uiso   1.00
Zn5    Zn    0.66666   0.33334   0.00077   0.00000  Uiso   1.00
O6     O     0.66666   0.33334   0.19053   0.00000  Uiso   1.00
Zn7    Zn    0.83333   0.16667   0.25076   0.00000  Uiso   1.00
O8     O     0.83334   0.16666   0.44054   0.00000  Uiso   1.00
Zn9    Zn    0.16667   0.83333   0.00076   0.00000  Uiso   1.00
O10    O     0.16666   0.83334   0.19054   0.00000  Uiso   1.00
Zn11   Zn    0.33334   0.66666   0.25077   0.00000  Uiso   1.00
O12    O     0.33334   0.66666   0.44053   0.00000  Uiso   1.00
Zn13   Zn    0.66665   0.83334   0.00077   0.00000  Uiso   1.00
O14    O     0.66665   0.83334   0.19053   0.00000  Uiso   1.00
Zn15   Zn    0.83334   0.66665   0.25077   0.00000  Uiso   1.00
O16    O     0.83334   0.66665   0.44053   0.00000  Uiso   1.00
Zn17   Zn    0.16666   0.33335   0.50077   0.00000  Uiso   1.00
O18    O     0.16666   0.33335   0.69053   0.00000  Uiso   1.00
Zn19   Zn    0.33335   0.16666   0.75077   0.00000  Uiso   1.00
O20    O     0.33335   0.16666   0.94053   0.00000  Uiso   1.00
Zn21   Zn    0.66666   0.33334   0.50077   0.00000  Uiso   1.00
O22    O     0.66666   0.33334   0.69053   0.00000  Uiso   1.00
Zn23   Zn    0.83333   0.16667   0.75076   0.00000  Uiso   1.00
O24    O     0.83334   0.16666   0.94054   0.00000  Uiso   1.00
Zn25   Zn    0.16667   0.83333   0.50076   0.00000  Uiso   1.00
O26    O     0.16666   0.83334   0.69054   0.00000  Uiso   1.00
Zn27   Zn    0.33334   0.66666   0.75077   0.00000  Uiso   1.00
O28    O     0.33334   0.66666   0.94053   0.00000  Uiso   1.00
Zn29   Zn    0.66665   0.83334   0.50077   0.00000  Uiso   1.00
O30    O     0.66665   0.83334   0.69053   0.00000  Uiso   1.00
Zn31   Zn    0.83334   0.66665   0.75077   0.00000  Uiso   1.00
O32    O     0.83334   0.66665   0.94053   0.00000  Uiso   1.00
loop_
_geom_bond_atom_site_label_1
_geom_bond_atom_site_label_2
_geom_bond_distance
_geom_bond_site_symmetry_2
_ccdc_geom_bond_type
Zn1    O2      2.010   .     S
Zn1    O28     2.001   1_554 S
Zn1    O24     2.001   1_454 S
Zn1    O20     2.001   1_554 S
O2     Zn11    2.001   .     S
O2     Zn7     2.001   1_455 S
O2     Zn3     2.001   .     S
Zn3    O4      2.010   .     S
Zn3    O10     2.001   1_545 S
Zn3    O6      2.001   .     S
O4     Zn25    2.001   1_545 S
O4     Zn21    2.001   .     S
O4     Zn17    2.001   .     S
Zn5    O6      2.010   .     S
Zn5    O32     2.001   1_554 S
Zn5    O20     2.001   1_554 S
Zn5    O24     2.001   1_554 S
O6     Zn15    2.001   .     S
O6     Zn7     2.001   .     S
Zn7    O8      2.010   .     S
Zn7    O14     2.001   1_545 S
Zn7    O2      2.001   1_655 S
O8     Zn29    2.001   1_545 S
O8     Zn17    2.001   1_655 S
O8     Zn21    2.001   .     S
Zn9    O10     2.010   .     S
Zn9    O20     2.001   1_564 S
Zn9    O32     2.001   1_454 S
Zn9    O28     2.001   1_554 S
O10    Zn3     2.001   1_565 S
O10    Zn15    2.001   1_455 S
O10    Zn11    2.001   .     S
Zn11   O12     2.010   .     S
Zn11   O14     2.001   .     S
O12    Zn17    2.001   .     S
O12    Zn29    2.001   .     S
O12    Zn25    2.001   .     S
Zn13   O14     2.010   .     S
Zn13   O24     2.001   1_564 S
Zn13   O28     2.001   1_554 S
Zn13   O32     2.001   1_554 S
O14    Zn7     2.001   1_565 S
O14    Zn15    2.001   .     S
Zn15   O16     2.010   .     S
Zn15   O10     2.001   1_655 S
O16    Zn21    2.001   .     S
O16    Zn25    2.001   1_655 S
O16    Zn29    2.001   .     S
Zn17   O18     2.010   .     S
Zn17   O8      2.001   1_455 S
O18    Zn27    2.001   .     S
O18    Zn23    2.001   1_455 S
O18    Zn19    2.001   .     S
Zn19   O20     2.010   .     S
Zn19   O26     2.001   1_545 S
Zn19   O22     2.001   .     S
O20    Zn9     2.001   1_546 S
O20    Zn5     2.001   1_556 S
O20    Zn1     2.001   1_556 S
Zn21   O22     2.010   .     S
O22    Zn31    2.001   .     S
O22    Zn23    2.001   .     S
Zn23   O24     2.010   .     S
Zn23   O30     2.001   1_545 S
Zn23   O18     2.001   1_655 S
O24    Zn13    2.001   1_546 S
O24    Zn1     2.001   1_656 S
O24    Zn5     2.001   1_556 S
Zn25   O26     2.010   .     S
Zn25   O4      2.001   1_565 S
Zn25   O16     2.001   1_455 S
O26    Zn19    2.001   1_565 S
O26    Zn31    2.001   1_455 S
O26    Zn27    2.001   .     S
Zn27   O28     2.010   .     S
Zn27   O30     2.001   .     S
O28    Zn1     2.001   1_556 S
O28    Zn13    2.001   1_556 S
O28    Zn9     2.001   1_556 S
Zn29   O30     2.010   .     S
Zn29   O8      2.001   1_565 S
O30    Zn23    2.001   1_565 S
O30    Zn31    2.001   .     S
Zn31   O32     2.010   .     S
Zn31   O26     2.001   1_655 S
O32    Zn5     2.001   1_556 S
O32    Zn9     2.001   1_656 S
O32    Zn13    2.001   1_556 S
